# Packages
 &PACKAGES
#useKPP=.true.,
 useOBCS=.TRUE.,
 useGrdChk=.true.,
#useMNC=.TRUE.,
 useShelfIce=.true.,
#useSEAICE=.true.,
# useDiagnostics = .true.,
 &
