# Open-boundaries
 &OBCS_PARM01
 OB_Iwest=30*1,
 useOBCSprescribe=.TRUE.,
 OBWuFile='uvel.obw',
#OBWvFile='vvel.obw',
 OBWtFile='theta.obw',
 OBWsFile='salt.obw', 
 useOrlanskiWest=.FALSE.,
 &

# Orlanski parameters
 &OBCS_PARM02
#Cmax=0.45,
#cVelTimeScale=1000.,
 &
